@<TRIPOS>MOLECULE
MEV
22 21 1 0 1
SMALL
USER_CHARGES
@<TRIPOS>ATOM
       1 C1           0.5130    -1.8930     0.5790 c3            1 MEV       -0.136000
       2 C2           0.0490    -0.5870    -0.0720 c3            1 MEV        0.174800
       3 O1           0.0170    -0.6980    -1.4600 oh            1 MEV       -0.607800
       4 C3          -1.3710    -0.4130     0.4000 c3            1 MEV       -0.073400
       5 C4          -2.0940     0.7840    -0.0790 c3            1 MEV        0.127400
       6 O2          -1.5370     1.9930     0.3030 oh            1 MEV       -0.620800
       7 C5           0.8740     0.5710     0.3800 c3            1 MEV       -0.211400
       8 C6           2.3200     0.4080     0.0700 c             1 MEV        0.632100
       9 O3           2.8100    -0.5840    -0.5060 o             1 MEV       -0.511000
      10 O4           3.1700     1.4260     0.4490 oh            1 MEV       -0.580100
      11 H1          -0.3430    -2.6020     0.4910 hc            1 MEV        0.052000
      12 H2           1.3720    -2.3330     0.0720 hc            1 MEV        0.052000
      13 H3           0.7570    -1.6740     1.6280 hc            1 MEV        0.052000
      14 H4          -0.5300    -1.4980    -1.6610 ho            1 MEV        0.430000
      15 H5          -1.4060    -0.3970     1.5350 hc            1 MEV        0.062700
      16 H6          -1.9880    -1.3310     0.1580 hc            1 MEV        0.062700
      17 H7          -2.2750     0.7660    -1.1960 h1            1 MEV        0.039200
      18 H8          -3.1390     0.7740     0.3560 h1            1 MEV        0.039200
      19 H9          -1.5610     2.6720    -0.4180 ho            1 MEV        0.403000
      20 H10          0.5520     1.4590    -0.2220 hc            1 MEV        0.093200
      21 H11          0.7390     0.7650     1.4370 hc            1 MEV        0.093200
      22 H12          3.0710     2.3940     0.1940 ho            1 MEV        0.427000
@<TRIPOS>BOND
       1        1        2 1
       2        1       11 1
       3        1       12 1
       4        1       13 1
       5        2        3 1
       6        2        4 1
       7        2        7 1
       8        3       14 1
       9        4        5 1
      10        4       15 1
      11        4       16 1
      12        5        6 1
      13        5       17 1
      14        5       18 1
      15        6       19 1
      16        7        8 1
      17        7       20 1
      18        7       21 1
      19        8        9 2
      20        8       10 1
      21       10       22 1
@<TRIPOS>SUBSTRUCTURE
       1 MEV             1 RESIDUE    0 **** ROOT      0
