@<TRIPOS>MOLECULE
HYD
28 29 1 0 1
SMALL
USER_CHARGES
@<TRIPOS>ATOM
       1 O1          -1.2720     1.0860     1.7170 o             1 HYD       -0.541000
       2 C1          -2.1180     1.0330     0.7790 c             1 HYD        0.649100
       3 O2          -2.5960     2.2420     0.3080 oh            1 HYD       -0.610100
       4 C2          -2.5010    -0.2960     0.2880 c3            1 HYD        0.132500
       5 N1          -3.7270    -0.0460    -0.5230 n8            1 HYD       -0.901800
       6 C3          -1.5140    -0.9940    -0.5810 c3            1 HYD       -0.040200
       7 C4          -0.1910    -1.2580    -0.0200 cc            1 HYD       -0.164400
       8 C5           0.8640    -0.3780     0.0400 ca            1 HYD       -0.048800
       9 C6           1.0450     0.9160    -0.3950 ca            1 HYD       -0.120000
      10 C7           2.2240     1.6020    -0.2270 ca            1 HYD        0.099100
      11 O3           2.3060     2.9170    -0.7080 oh            1 HYD       -0.502100
      12 C8           3.2820     0.9890     0.4000 ca            1 HYD       -0.189000
      13 C9           3.1300    -0.3080     0.8470 ca            1 HYD       -0.103000
      14 C10          1.9460    -0.9970     0.6780 ca            1 HYD       -0.078200
      15 N2           1.5420    -2.2490     1.0000 na            1 HYD       -0.185400
      16 C11          0.2780    -2.4250     0.5960 cd            1 HYD       -0.079100
      17 H1          -1.9020     2.9840     0.1470 ho            1 HYD        0.446000
      18 H2          -2.8350    -0.9080     1.1500 h1            1 HYD        0.087700
      19 H3          -3.4900    -0.0210    -1.5190 hn            1 HYD        0.362300
      20 H4          -4.4910    -0.6710    -0.2400 hn            1 HYD        0.362300
      21 H5          -1.9640    -2.0120    -0.8030 hc            1 HYD        0.060200
      22 H6          -1.4790    -0.5060    -1.5820 hc            1 HYD        0.060200
      23 H7           0.2290     1.4090    -0.8880 ha            1 HYD        0.153000
      24 H8           3.1650     3.4280    -0.5900 ho            1 HYD        0.416000
      25 H9           4.2180     1.5330     0.5350 ha            1 HYD        0.132000
      26 H10          3.9440    -0.8060     1.3400 ha            1 HYD        0.135000
      27 H11          2.1890    -2.9250     1.4990 hn            1 HYD        0.299700
      28 H12         -0.2810    -3.3390     0.7330 h4            1 HYD        0.168000
@<TRIPOS>BOND
       1        1        2 2
       2        2        3 1
       3        2        4 1
       4        3       17 1
       5        4        5 1
       6        4        6 1
       7        4       18 1
       8        5       19 1
       9        5       20 1
      10        6        7 1
      11        6       21 1
      12        6       22 1
      13        7        8 1
      14        7       16 2
      15        8        9 ar
      16        8       14 ar
      17        9       10 ar
      18        9       23 1
      19       10       11 1
      20       10       12 ar
      21       11       24 1
      22       12       13 ar
      23       12       25 1
      24       13       14 ar
      25       13       26 1
      26       14       15 1
      27       15       16 1
      28       15       27 1
      29       16       28 1
@<TRIPOS>SUBSTRUCTURE
       1 HYD             1 RESIDUE    0 **** ROOT      0
