@<TRIPOS>MOLECULE
ETH
9 8 1 0 1
SMALL
USER_CHARGES
@<TRIPOS>ATOM
       1 C1          -0.9670    -0.1320    -0.0290 c3            1 ETH       -0.136200
       2 C2           0.5310    -0.2140    -0.1700 c3            1 ETH        0.126400
       3 O1           1.0340     1.0660     0.0090 oh            1 ETH       -0.599800
       4 H1          -1.2620    -0.7530     0.8130 hc            1 ETH        0.042400
       5 H2          -1.3270     0.9190     0.1040 hc            1 ETH        0.042400
       6 H3          -1.4690    -0.5080    -0.9370 hc            1 ETH        0.042400
       7 H4           0.9960    -0.8800     0.5980 h1            1 ETH        0.043200
       8 H5           0.8160    -0.6560    -1.1500 h1            1 ETH        0.043200
       9 H6           1.6480     1.1590     0.7620 ho            1 ETH        0.396000
@<TRIPOS>BOND
       1        1        2 1
       2        1        4 1
       3        1        5 1
       4        1        6 1
       5        2        3 1
       6        2        7 1
       7        2        8 1
       8        3        9 1
@<TRIPOS>SUBSTRUCTURE
       1 ETH             1 RESIDUE    0 **** ROOT      0
