@<TRIPOS>MOLECULE
HYD
28 29 1 0 1
SMALL
USER_CHARGES
@<TRIPOS>ATOM
       1 O1          -2.0630    -1.4620     1.1180 o             1 HYD       -0.561700
       2 C1          -2.8250    -0.5180     0.8230 c             1 HYD        0.589200
       3 O2          -4.1740    -0.5780     1.2780 oh            1 HYD       -0.617000
       4 C2          -2.4870     0.6790     0.0400 c3            1 HYD        0.140600
       5 N1          -3.4490     1.7340     0.1830 n8            1 HYD       -0.893700
       6 C3          -1.0610     1.0880     0.2600 c3            1 HYD        0.004900
       7 C4          -0.1650     0.0120    -0.2030 cc            1 HYD       -0.178300
       8 C5           1.1880    -0.0330     0.1560 ca            1 HYD       -0.042700
       9 C6           1.9980     0.7740     0.9410 ca            1 HYD       -0.178900
      10 C7           3.3380     0.5000     1.1260 ca            1 HYD        0.104200
      11 O3           4.1680     1.3120     1.9160 oh            1 HYD       -0.503000
      12 C8           3.8370    -0.6200     0.4920 ca            1 HYD       -0.136900
      13 C9           3.0400    -1.4310    -0.2910 ca            1 HYD       -0.108900
      14 C10          1.6880    -1.1500    -0.4760 ca            1 HYD       -0.083100
      15 N2           0.7120    -1.7460    -1.1710 na            1 HYD       -0.184300
      16 C11         -0.4500    -1.0570    -1.0290 cd            1 HYD       -0.081000
      17 H1          -4.8490    -1.1700     0.7910 ho            1 HYD        0.446100
      18 H2          -2.5200     0.3650    -1.0710 h1            1 HYD        0.101800
      19 H3          -3.8090     1.8370     1.1620 hn            1 HYD        0.363400
      20 H4          -4.2410     1.5330    -0.4680 hn            1 HYD        0.363400
      21 H5          -0.9500     1.1800     1.3790 hc            1 HYD        0.063300
      22 H6          -0.8220     2.0840    -0.1390 hc            1 HYD        0.063300
      23 H7           1.5530     1.6510     1.4160 ha            1 HYD        0.137100
      24 H8           4.6450     2.0760     1.4630 ho            1 HYD        0.416100
      25 H9           4.8890    -0.8380     0.6370 ha            1 HYD        0.149100
      26 H10          3.4190    -2.3150    -0.7910 ha            1 HYD        0.135100
      27 H11          0.8010    -2.6000    -1.7330 hn            1 HYD        0.300800
      28 H12         -1.4100    -1.3070    -1.4890 h4            1 HYD        0.191100
@<TRIPOS>BOND
       1        1        2 2
       2        2        3 1
       3        2        4 1
       4        3       17 1
       5        4        5 1
       6        4        6 1
       7        4       18 1
       8        5       19 1
       9        5       20 1
      10        6        7 1
      11        6       21 1
      12        6       22 1
      13        7        8 1
      14        7       16 2
      15        8        9 ar
      16        8       14 ar
      17        9       10 ar
      18        9       23 1
      19       10       11 1
      20       10       12 ar
      21       11       24 1
      22       12       13 ar
      23       12       25 1
      24       13       14 ar
      25       13       26 1
      26       14       15 1
      27       15       16 1
      28       15       27 1
      29       16       28 1
@<TRIPOS>SUBSTRUCTURE
       1 HYD             1 RESIDUE    0 **** ROOT      0
