@<TRIPOS>MOLECULE
CHL
5 4 1 0 1
SMALL
USER_CHARGES
@<TRIPOS>ATOM
       1 C1           0.0100     0.0010     0.1170 c3            1 CHL        0.223700
       2 CL1         -0.0590     1.6950    -0.3850 cl            1 CHL       -0.114200
       3 CL2         -1.4430    -0.8330    -0.4800 cl            1 CHL       -0.114200
       4 CL3          1.4950    -0.7700    -0.4770 cl            1 CHL       -0.114200
       5 H1          -0.0030    -0.0920     1.2250 h3            1 CHL        0.118900
@<TRIPOS>BOND
       1        1        2 1
       2        1        3 1
       3        1        4 1
       4        1        5 1
@<TRIPOS>SUBSTRUCTURE
       1 CHL             1 RESIDUE    0 **** ROOT      0
