@<TRIPOS>MOLECULE
ACE
7 6 1 0 1
SMALL
USER_CHARGES
@<TRIPOS>ATOM
       1 C1          -0.6460    -0.0050     0.0410 c3            1 ACE       -0.221000
       2 C2           0.8400    -0.0060    -0.0450 c             1 ACE        0.561900
       3 O1           1.4320     1.0600    -0.0220 o             1 ACE       -0.526100
       4 H1          -1.1220     0.6460    -0.7160 hc            1 ACE        0.065000
       5 H2          -0.9740    -1.0460    -0.2120 hc            1 ACE        0.065000
       6 H3          -0.9710     0.2540     1.0810 hc            1 ACE        0.065000
       7 H4           1.4400    -0.9030    -0.1280 h4            1 ACE       -0.009800
@<TRIPOS>BOND
       1        1        2 1
       2        1        4 1
       3        1        5 1
       4        1        6 1
       5        2        3 2
       6        2        7 1
@<TRIPOS>SUBSTRUCTURE
       1 ACE             1 RESIDUE    0 **** ROOT      0
